/*--------------------------------*- C++ -*----------------------------------*\
  =========                 |
  \\      /  F ield         | OpenFOAM: The Open Source CFD Toolbox
   \\    /   O peration     | Website:  https://openfoam.org
    \\  /    A nd           | Version:  6
     \\/     M anipulation  |
\*---------------------------------------------------------------------------*/
FoamFile
{
    version     2.0;
    format      ascii;
    class       dictionary;
    location    "system";
    object      fvSchemes;
}
// * * * * * * * * * * * * * * * * * * * * * * * * * * * * * * * * * * * * * //

ddtSchemes
{
    default         Euler;
}

gradSchemes
{
    default         Gauss linear;
}

divSchemes
{
    default         bounded Gauss linear;

    div(phi,prec1)  bounded Gauss upwind;
    div(phi,prec2)  bounded Gauss upwind;
    div(phi,prec3)  bounded Gauss upwind;
    div(phi,prec4)  bounded Gauss upwind;
    div(phi,prec5)  bounded Gauss upwind;
    div(phi,prec6)  bounded Gauss upwind;
    div(phi,prec7)  bounded Gauss upwind;
    div(phi,prec8)  bounded Gauss upwind;

    div(phi,k)      bounded Gauss upwind;
    div(phi,epsilon) bounded Gauss upwind;
    div((nuEff*dev2(T(grad(U))))) Gauss linear;
}

laplacianSchemes
{
    default         Gauss linear corrected;
}

interpolationSchemes
{
    default         linear;
}

snGradSchemes
{
    default         corrected;
}


// ************************************************************************* //
