/*--------------------------------*- C++ -*----------------------------------*\
  =========                 |
  \\      /  F ield         | OpenFOAM: The Open Source CFD Toolbox
   \\    /   O peration     | Website:  https://openfoam.org
    \\  /    A nd           | Version:  8
     \\/     M anipulation  |
\*---------------------------------------------------------------------------*/
FoamFile
{
    version     2.0;
    format      ascii;
    class       dictionary;
    location    "system";
    object      setFieldsDict;
}
// * * * * * * * * * * * * * * * * * * * * * * * * * * * * * * * * * * * * * //

defaultFieldValues
(
volScalarFieldValue rho 4306.71
volScalarFieldValue Cp 1593.94
volScalarFieldValue beta 1.912e-4
volScalarFieldValue Prl   23.78
volScalarFieldValue Prt   0.85
volScalarFieldValue D1_ref 2.31456e-02
volScalarFieldValue D2_ref 1.53990e-02
volScalarFieldValue D3_ref 9.75996e-03
volScalarFieldValue D4_ref 1.18004e-02
volScalarFieldValue D5_ref 1.10261e-02
volScalarFieldValue D6_ref 1.02629e-02
volScalarFieldValue Ef1  3.30441e-11
volScalarFieldValue Ef2 3.31452e-11
volScalarFieldValue Ef3 3.29925e-11
volScalarFieldValue Ef4 3.29401e-11
volScalarFieldValue Ef5 3.29318e-11
volScalarFieldValue Ef6 3.29488e-11
volScalarFieldValue Nu1 3.07609e+00
volScalarFieldValue Nu2 2.86316e+00
volScalarFieldValue Nu3 2.70754e+00
volScalarFieldValue Nu4 2.67182e+00
volScalarFieldValue Nu5 2.66723e+00
volScalarFieldValue Nu6 2.67155e+00
volScalarFieldValue Sa1_ref 6.21067e-01
volScalarFieldValue Sa2_ref 3.25848e-01
volScalarFieldValue Sa3_ref 3.95184e-01
volScalarFieldValue Sa4_ref 7.72360e-01
volScalarFieldValue Sa5_ref 1.54741e+00
volScalarFieldValue Sa6_ref 3.87912e+00
volScalarFieldValue Sf1_ref 4.44646e-01
volScalarFieldValue Sf2_ref 2.51693e-01
volScalarFieldValue Sf3_ref 1.80463e-01
volScalarFieldValue Sf4_ref 2.61848e-01
volScalarFieldValue Sf5_ref 5.20032e-01
volScalarFieldValue Sf6_ref 1.39469e+00
volScalarFieldValue Ss11_ref 1.35547e+01
volScalarFieldValue Ss12_ref 5.80542e+00
volScalarFieldValue Ss13_ref 6.15742e-01
volScalarFieldValue Ss14_ref 4.17287e-03
volScalarFieldValue Ss15_ref 4.29399e-04
volScalarFieldValue Ss16_ref 3.61795e-05
volScalarFieldValue Ss21_ref 0.00000e+00
volScalarFieldValue Ss22_ref 2.20416e+01
volScalarFieldValue Ss23_ref 3.76556e+00
volScalarFieldValue Ss24_ref 6.43006e-03
volScalarFieldValue Ss25_ref 5.35827e-04
volScalarFieldValue Ss26_ref 2.38491e-05
volScalarFieldValue Ss31_ref 0.00000e+00
volScalarFieldValue Ss32_ref 0.00000e+00
volScalarFieldValue Ss33_ref 3.50394e+01
volScalarFieldValue Ss34_ref 1.41178e+00
volScalarFieldValue Ss35_ref 2.36585e-03
volScalarFieldValue Ss36_ref 1.49037e-04
volScalarFieldValue Ss41_ref 0.00000e+00
volScalarFieldValue Ss42_ref 0.00000e+00
volScalarFieldValue Ss43_ref 0.00000e+00
volScalarFieldValue Ss44_ref 2.71893e+01
volScalarFieldValue Ss45_ref 1.27535e+00
volScalarFieldValue Ss46_ref 2.40335e-04
volScalarFieldValue Ss51_ref 0.00000e+00
volScalarFieldValue Ss52_ref 0.00000e+00
volScalarFieldValue Ss53_ref 0.00000e+00
volScalarFieldValue Ss54_ref 0.00000e+00
volScalarFieldValue Ss55_ref 2.90187e+01
volScalarFieldValue Ss56_ref 5.69298e-01
volScalarFieldValue Ss61_ref 0.00000e+00
volScalarFieldValue Ss62_ref 0.00000e+00
volScalarFieldValue Ss63_ref 0.00000e+00
volScalarFieldValue Ss64_ref 0.00000e+00
volScalarFieldValue Ss65_ref 0.00000e+00
volScalarFieldValue Ss66_ref 2.95510e+01
volScalarFieldValue alphaD1_ref -1.18186e-05
volScalarFieldValue alphaD2_ref 3.82367e-06
volScalarFieldValue alphaD3_ref -3.47606e-06
volScalarFieldValue alphaD4_ref -3.92795e-05
volScalarFieldValue alphaD5_ref -1.39042e-04
volScalarFieldValue alphaD6_ref -2.34634e-04
volScalarFieldValue alphaSa1_ref -7.78637e-04
volScalarFieldValue alphaSa2_ref -2.08564e-05
volScalarFieldValue alphaSa3_ref 2.78085e-04
volScalarFieldValue alphaSa4_ref 4.66487e-03
volScalarFieldValue alphaSa5_ref 4.38331e-02
volScalarFieldValue alphaSa6_ref 2.36476e-01
volScalarFieldValue alphaSf1_ref -8.34254e-05
volScalarFieldValue alphaSf2_ref -2.78085e-05
volScalarFieldValue alphaSf3_ref 6.95212e-06
volScalarFieldValue alphaSf4_ref 8.34254e-05
volScalarFieldValue alphaSf5_ref -7.43877e-04
volScalarFieldValue alphaSf6_ref -1.04629e-02
volScalarFieldValue alphaSs11_ref -1.00806e-02
volScalarFieldValue alphaSs12_ref 1.04629e-02
volScalarFieldValue alphaSs13_ref 2.73566e-03
volScalarFieldValue alphaSs14_ref -9.61130e-05
volScalarFieldValue alphaSs15_ref 3.70061e-05
volScalarFieldValue alphaSs16_ref -1.41649e-05
volScalarFieldValue alphaSs21_ref 0.00000e+00
volScalarFieldValue alphaSs22_ref -2.08564e-03
volScalarFieldValue alphaSs23_ref 1.52947e-03
volScalarFieldValue alphaSs24_ref -1.31708e-04
volScalarFieldValue alphaSs25_ref 2.34113e-05
volScalarFieldValue alphaSs26_ref -3.17260e-06
volScalarFieldValue alphaSs31_ref 0.00000e+00
volScalarFieldValue alphaSs32_ref 0.00000e+00 
volScalarFieldValue alphaSs33_ref 9.73297e-03
volScalarFieldValue alphaSs34_ref 2.78085e-04
volScalarFieldValue alphaSs35_ref -3.16321e-06
volScalarFieldValue alphaSs36_ref 1.35393e-05
volScalarFieldValue alphaSs41_ref 0.00000e+00
volScalarFieldValue alphaSs42_ref 0.00000e+00 
volScalarFieldValue alphaSs43_ref 0.00000e+00
volScalarFieldValue alphaSs44_ref 8.86395e-02
volScalarFieldValue alphaSs45_ref -1.84231e-03
volScalarFieldValue alphaSs46_ref  -3.22995e-05
volScalarFieldValue alphaSs51_ref 0.00000e+00
volScalarFieldValue alphaSs52_ref 0.00000e+00
volScalarFieldValue alphaSs53_ref 0.00000e+00
volScalarFieldValue alphaSs54_ref 0.00000e+00
volScalarFieldValue alphaSs55_ref 3.55948e-01
volScalarFieldValue alphaSs56_ref -1.58543e-02
volScalarFieldValue alphaSs61_ref 0.00000e+00
volScalarFieldValue alphaSs62_ref 0.00000e+00 
volScalarFieldValue alphaSs63_ref 0.00000e+00
volScalarFieldValue alphaSs64_ref 0.00000e+00
volScalarFieldValue alphaSs65_ref 0.00000e+00
volScalarFieldValue alphaSs66_ref 5.24190e-01
volScalarFieldValue chiDelayed1 4.64504e-03
volScalarFieldValue chiDelayed2 3.93907e-01
volScalarFieldValue chiDelayed3 5.75388e-01
volScalarFieldValue chiDelayed4 2.30694e-02
volScalarFieldValue chiDelayed5 2.67409e-03
volScalarFieldValue chiDelayed6 3.16259e-04
volScalarFieldValue chiPrompt1 3.60673e-01
volScalarFieldValue chiPrompt2 5.17157e-01
volScalarFieldValue chiPrompt3 1.20643e-01
volScalarFieldValue chiPrompt4 1.36868e-03
volScalarFieldValue chiPrompt5 1.51493e-04
volScalarFieldValue chiPrompt6 7.45716e-06
volScalarFieldValue invVel1 3.98114e-08
volScalarFieldValue invVel2 7.52035e-08
volScalarFieldValue invVel3 2.68798e-07
volScalarFieldValue invVel4 6.62039e-07
volScalarFieldValue invVel5 1.49469e-06
volScalarFieldValue invVel6 3.65757e-06
volScalarFieldValue precBeta1 1.22426e-04
volScalarFieldValue precBeta2 7.57005e-04
volScalarFieldValue precBeta3 3.76047e-04 
volScalarFieldValue precBeta4 8.13656e-04
volScalarFieldValue precBeta5 1.47910e-03
volScalarFieldValue precBeta6 5.19854e-04
volScalarFieldValue precBeta7 4.62852e-04
volScalarFieldValue precBeta8 1.57447e-04
volScalarFieldValue precLambda1 1.24667e-02
volScalarFieldValue precLambda2 2.82917e-02
volScalarFieldValue precLambda3 4.25244e-02
volScalarFieldValue precLambda4 1.33042e-01 
volScalarFieldValue precLambda5 2.92467e-01
volScalarFieldValue precLambda6 2.92467e-01
volScalarFieldValue precLambda7 1.63478e+00
volScalarFieldValue precLambda8 3.55460e+00
volScalarFieldValue decBeta1 1.86e-02
volScalarFieldValue decBeta2 1.29e-02
volScalarFieldValue decBeta3 1.17e-02
volScalarFieldValue decLambda1 3.580e-04
volScalarFieldValue decLambda2 1.680e-02
volScalarFieldValue decLambda3 1.973e-01
volScalarFieldValue liquidFraction 1.00
);

regions
(
    zoneToCell
    {
       name  structure;
      fieldValues ( 
volScalarFieldValue rho 10000 
volScalarFieldValue Cp 600
volScalarFieldValue beta 1.38e-5 
volScalarFieldValue Prl 1.04822 
volScalarFieldValue Prt 1.0e+08 
volScalarFieldValue D1_ref 1.66e-02
volScalarFieldValue D2_ref 1.50e-02
volScalarFieldValue D3_ref 7.21e-03
volScalarFieldValue D4_ref 2.29e-03
volScalarFieldValue D5_ref 2.24e-03
volScalarFieldValue D6_ref 2.30e-03
volScalarFieldValue Ef1 0.00e+00
volScalarFieldValue Ef2 0.00e+00
volScalarFieldValue Ef3 0.00e+00
volScalarFieldValue Ef4 0.00e+00
volScalarFieldValue Ef5 0.00e+00
volScalarFieldValue Ef6 0.00e+00
volScalarFieldValue Nu1 0.00e+00
volScalarFieldValue Nu2 0.00e+00
volScalarFieldValue Nu3 0.00e+00
volScalarFieldValue Nu4 0.00e+00
volScalarFieldValue Nu5 0.00e+00
volScalarFieldValue Nu6 0.00e+00
volScalarFieldValue Sa1_ref 1.29e+00
volScalarFieldValue Sa2_ref 1.28e-01
volScalarFieldValue Sa3_ref 2.40e-01
volScalarFieldValue Sa4_ref 6.66e-01
volScalarFieldValue Sa5_ref 1.45e+00
volScalarFieldValue Sa6_ref 3.87e+00
volScalarFieldValue Sf1_ref 0.00e+00
volScalarFieldValue Sf2_ref 0.00e+00
volScalarFieldValue Sf3_ref 0.00e+00
volScalarFieldValue Sf4_ref 0.00e+00
volScalarFieldValue Sf5_ref 0.00e+00
volScalarFieldValue Sf6_ref 0.00e+00
volScalarFieldValue Ss11_ref 9.23e+00
volScalarFieldValue Ss12_ref 7.71e+00
volScalarFieldValue Ss13_ref 1.76e+00
volScalarFieldValue Ss14_ref 1.26e-02
volScalarFieldValue Ss15_ref 7.95e-04
volScalarFieldValue Ss16_ref 0.00e+00
volScalarFieldValue Ss21_ref 0.00e+00
volScalarFieldValue Ss22_ref 2.03e+01
volScalarFieldValue Ss23_ref 1.83e+00
volScalarFieldValue Ss24_ref 8.45e-03
volScalarFieldValue Ss25_ref 7.80e-04
volScalarFieldValue Ss26_ref 5.57e-05
volScalarFieldValue Ss31_ref 0.00e+00
volScalarFieldValue Ss32_ref 0.00e+00
volScalarFieldValue Ss33_ref 4.52e+01
volScalarFieldValue Ss34_ref 7.68e-01
volScalarFieldValue Ss35_ref 1.40e-03
volScalarFieldValue Ss36_ref 1.71e-05
volScalarFieldValue Ss41_ref 0.00e+00
volScalarFieldValue Ss42_ref 0.00e+00
volScalarFieldValue Ss43_ref 0.00e+00
volScalarFieldValue Ss44_ref 1.42e+02
volScalarFieldValue Ss45_ref 3.07e+00
volScalarFieldValue Ss46_ref 0.00e+00
volScalarFieldValue Ss51_ref 0.00e+00
volScalarFieldValue Ss52_ref 0.00e+00
volScalarFieldValue Ss53_ref 0.00e+00
volScalarFieldValue Ss54_ref 0.00e+00
volScalarFieldValue Ss55_ref 1.46e+02
volScalarFieldValue Ss56_ref 1.55e+00
volScalarFieldValue Ss61_ref 0.00e+00
volScalarFieldValue Ss62_ref 0.00e+00
volScalarFieldValue Ss63_ref 0.00e+00
volScalarFieldValue Ss64_ref 0.00e+00
volScalarFieldValue Ss65_ref 0.00e+00
volScalarFieldValue Ss66_ref 1.41e+02
volScalarFieldValue alphaD1_ref 0.00e+00
volScalarFieldValue alphaD2_ref 0.00e+00
volScalarFieldValue alphaD3_ref 0.00e+00
volScalarFieldValue alphaD4_ref 0.00e+00
volScalarFieldValue alphaD5_ref 0.00e+00
volScalarFieldValue alphaD6_ref 0.00e+00
volScalarFieldValue alphaSa1_ref 0.00e+00
volScalarFieldValue alphaSa2_ref 0.00e+00
volScalarFieldValue alphaSa3_ref 0.00e+00
volScalarFieldValue alphaSa4_ref 0.00e+00
volScalarFieldValue alphaSa5_ref 0.00e+00
volScalarFieldValue alphaSa6_ref 0.00e+00
volScalarFieldValue alphaSf1_ref 0.00e+00
volScalarFieldValue alphaSf2_ref 0.00e+00
volScalarFieldValue alphaSf3_ref 0.00e+00
volScalarFieldValue alphaSf4_ref 0.00e+00
volScalarFieldValue alphaSf5_ref 0.00e+00
volScalarFieldValue alphaSf6_ref 0.00e+00
volScalarFieldValue alphaSs11_ref 0.00e+00
volScalarFieldValue alphaSs12_ref 0.00e+00
volScalarFieldValue alphaSs13_ref 0.00e+00
volScalarFieldValue alphaSs14_ref 0.00e+00
volScalarFieldValue alphaSs15_ref 0.00e+00
volScalarFieldValue alphaSs16_ref 0.00e+00
volScalarFieldValue alphaSs21_ref 0.00e+00
volScalarFieldValue alphaSs22_ref 0.00e+00
volScalarFieldValue alphaSs23_ref 0.00e+00
volScalarFieldValue alphaSs24_ref 0.00e+00
volScalarFieldValue alphaSs25_ref 0.00e+00
volScalarFieldValue alphaSs26_ref 0.00e+00
volScalarFieldValue alphaSs31_ref 0.00e+00
volScalarFieldValue alphaSs32_ref 0.00e+00
volScalarFieldValue alphaSs33_ref 0.00e+00
volScalarFieldValue alphaSs34_ref 0.00e+00
volScalarFieldValue alphaSs35_ref 0.00e+00
volScalarFieldValue alphaSs36_ref 0.00e+00
volScalarFieldValue alphaSs41_ref 0.00e+00
volScalarFieldValue alphaSs42_ref 0.00e+00
volScalarFieldValue alphaSs43_ref 0.00e+00
volScalarFieldValue alphaSs44_ref 0.00e+00
volScalarFieldValue alphaSs45_ref 0.00e+00
volScalarFieldValue alphaSs46_ref 0.00e+00
volScalarFieldValue alphaSs51_ref 0.00e+00
volScalarFieldValue alphaSs52_ref 0.00e+00
volScalarFieldValue alphaSs53_ref 0.00e+00
volScalarFieldValue alphaSs54_ref 0.00e+00
volScalarFieldValue alphaSs55_ref 0.00e+00
volScalarFieldValue alphaSs56_ref 0.00e+00
volScalarFieldValue alphaSs61_ref 0.00e+00
volScalarFieldValue alphaSs62_ref 0.00e+00
volScalarFieldValue alphaSs63_ref 0.00e+00
volScalarFieldValue alphaSs64_ref 0.00e+00
volScalarFieldValue alphaSs65_ref 0.00e+00
volScalarFieldValue alphaSs66_ref 0.00e+00
volScalarFieldValue chiDelayed1 0.00e+00
volScalarFieldValue chiDelayed2 0.00e+00
volScalarFieldValue chiDelayed3 0.00e+00
volScalarFieldValue chiDelayed4 0.00e+00
volScalarFieldValue chiDelayed5 0.00e+00
volScalarFieldValue chiDelayed6 0.00e+00
volScalarFieldValue chiPrompt1 0.00e+00
volScalarFieldValue chiPrompt2 0.00e+00
volScalarFieldValue chiPrompt3 0.00e+00
volScalarFieldValue chiPrompt4 0.00e+00
volScalarFieldValue chiPrompt5 0.00e+00
volScalarFieldValue chiPrompt6 0.00e+00
volScalarFieldValue invVel1 4.03e-08
volScalarFieldValue invVel2 8.16e-08
volScalarFieldValue invVel3 2.37e-07
volScalarFieldValue invVel4 7.17e-07
volScalarFieldValue invVel5 1.65e-06
volScalarFieldValue invVel6 4.33e-06
volScalarFieldValue precBeta1 0.00e+00
volScalarFieldValue precBeta2 0.00e+00
volScalarFieldValue precBeta3 0.00e+00
volScalarFieldValue precBeta4 0.00e+00
volScalarFieldValue precBeta5 0.00e+00
volScalarFieldValue precBeta6 0.00e+00
volScalarFieldValue precBeta7 0.00e+00
volScalarFieldValue precBeta8 0.00e+00
volScalarFieldValue precLambda1 0.00e+00
volScalarFieldValue precLambda2 0.00e+00
volScalarFieldValue precLambda3 0.00e+00
volScalarFieldValue precLambda4 0.00e+00
volScalarFieldValue precLambda5 0.00e+00
volScalarFieldValue precLambda6 0.00e+00
volScalarFieldValue precLambda7 0.00e+00
volScalarFieldValue precLambda8 0.00e+00
volScalarFieldValue decBeta1 0.00e+00
volScalarFieldValue decBeta2 0.00e+00
volScalarFieldValue decBeta3 0.00e+00
volScalarFieldValue decLambda1 0.00e+00
volScalarFieldValue decLambda2 0.00e+00
volScalarFieldValue decLambda3 0.00e+00
volScalarFieldValue liquidFraction 0.00
);

    }
);


// ************************************************************************* //
