/*--------------------------------*- C++ -*----------------------------------*\
  =========                 |
  \\      /  F ield         | OpenFOAM: The Open Source CFD Toolbox
   \\    /   O peration     | Website:  https://openfoam.org
    \\  /    A nd           | Version:  6
     \\/     M anipulation  |
\*---------------------------------------------------------------------------*/
FoamFile
{
    version     2.0;
    format      ascii;
    class       dictionary;
    location    "constant";
    object      transportProperties;
}

// * * * * * * * * * * * * * * * * * * * * * * * * * * * * * * * * * * * * * //

transportModel  Newtonian;

nu              [0 2 -1 0 0 0 0] 5.89e-06; // Laminar viscosity

//beta            [0 0 0 -1 0 0 0] 1.912e-4; // Thermal expansion coefficient

TRef            [0 0 0 1 0 0 0] 973; // Reference temperature

rhoRef          4306.71; // Reference density

CpRef           1593.94; // Reference specific heat capacity

Pr              [0 0 0 0 0 0 0] 1.04822; // Laminar Prandtl number

//Prt             [0 0 0 0 0 0 0] 0.85; // Turbulent Prandtl number

Sc              [0 0 0 0 0 0 0] 20; // Laminar Schmidt number

Sct             [0 0 0 0 0 0 0] 0.85; // Turbulent Schmidt number

C		[0 0 -1 0 0 0 0] 1.2e8;
// ************************************************************************* //
